test/data/pwf/300bus.pwf
(ARQUIVO GRAVADO A PARTIR DO PROGRAMA ORGANON)
TITU
0,    100.00, 33, 0, 0, 60.00       / December 04, 2013 16: IEEE 300-BUS TEST SYSTEM                                    
DOPC
(Op) E (Op) E (Op) E (Op) E (Op) E (Op) E (Op) E (Op) E (Op) E (Op) E
NEWT L STEP L CREM L CELO L 
RCVG L RMON L MOST L MOSG L MOSF L FILE L CONT L
QLIM L
CTAP D
TAPD D
CSCA D
CPHS D
99999
(Mn) ( Val) (Mn) ( Val) (Mn) ( Val) (Mn) ( Val) (Mn) ( Val) (Mn) ( Val)
DCTE
BASE 100.  
TEPA .1    
TEPR .1    
VFLD 80.   
ACIT     35
99999
DBAR
(Num)OETGb(   nome   )Gl( V)( A)( Pg)( Qg)( Qn)( Qm)(Bc  )( Pl)( Ql)( Sh)Are(Vf)M(1)(2)(3)(4)(5)(6)(7)(8)(9)(10
    1 L   1            A10276.52                          90.  49.         11000
    2 L   1            A10348.28                          56.  15.         11000
    3 L   1            A 9947.22                          20.  0.          11000
    4 L   1            A10275.21                                           11000
    5 L   1            A10185.25                          353. 130.        11000
    6 L   1            A10307.54                          120. 41.         11000
    7 L   1            A 9906.78                                           11000
    8 L1  1            A10142.87     10.  -10. 10.        58.  14.         11000
    9 L   1            A10023.39                          96.  43.         11000
   10 L1  1            A10191.88     20.  -20. 20.        148. 33.         11000
   11 L   1            A10052.98                          83.  21.         11000
   12 L   1            A 9955.78                                           11000
   13 L   1            A 996-.04                          58.  10.         11000
   14 L   1            A 997-4.5                          160. 60.         11000
   15 L   1            A1032-8.4                          126.723.         11000
   16 L   1            A1028-2.5                                           11000
   17 L   1            A1063-13.                          561. 220.        11000
   19 L   1            A 9801.57                                           11000
   20 L1  1            A 999-2.      20.  -20. 20.        595. 120.        11000
   21 L   1            A 9732.14                          77.  1.          11000
   22 L   1            A 995-1.5                          81.  23.         11000
   23 L   1            A10504.44                          21.  7.          11000
   24 L   1            A10056.54                                           11000
   25 L   1            A10231.94                          45.  12.         11000
   26 L   1            A 998-1.2                          28.  9.          11000
   27 L   1            A 974-4.4                          69.  13.         11000
   33 L   1            A1023-12.                          55.  6.          11000
   34 L   1            A1040-8.1                                           11000
   35 L   1            A 976-26.                                           11000
   36 L   1            A1001-23.                                           11000
   37 L   1            A1019-11.                          85.  32.         11000
   38 L   1            A1019-13.                          155. 18.         11000
   39 L   1            A1052-5.9                                           11000
   40 L   1            A1021-13.                          46.  -21.        11000
   41 L   1            A1028-11.                          86.  0.          11000
   42 L   1            A1043-7.6                                           11000
   43 L   1            A1000-17.                          39.  9.          11000
   44 L   1            A1009-18.                          195. 29.         11000
   45 L   1            A1022-15.                                           11000
   46 L   1            A1033-12.                                           11000
   47 L   1            A 978-24.                          58.  11.8        11000
   48 L   1            A1001-16.                          41.  19.         11000
   49 L   1            A1047-3.                           92.  26.         11000
   51 L   1            A1025-8.4                          -5.  5.          11000
   52 L   1            A 998-12.                          61.  28.         11000
   53 L   1            A 996-18.                          69.  3.          11000
   54 L   1            A1005-17.                          10.  1.          11000
   55 L   1            A1015-13.                          22.  10.         11000
   57 L   1            A1034-9.6                          98.  20.         11000
   58 L   1            A 991-7.9                          14.  1.          11000
   59 L   1            A 979-7.3                          218. 106.        11000
   60 L   1            A1027-11.                                           11000
   61 L   1            A 991-5.6                          227. 110.        11000
   62 L   1            A1017-3.4                                           11000
   63 L1  1            A 958-20.     24.47-25. 25.        70.  30.         11000
   64 L   1            A 948-15.                                           11000
   69 L   1            A 963-26.                                           11000
   70 L   1            A 951-36.                          56.  20.         11000
   71 L   1            A 979-30.                          116. 38.         11000
   72 L   1            A 970-28.                          57.  19.         11000
   73 L   1            A 978-26.                          224. 71.         11000
   74 L   1            A 996-22.                                           11000
   76 L1  1            A 963-27.     35.  12.  35.        208. 107.        11000
   77 L   1            A 984-25.                          74.  28.         11000
   78 L   1            A 990-24.                                           11000
   79 L   1            A 982-25.                          48.  14.         11000
   80 L   1            A 987-25.                          28.  7.          11000
   81 L   1            A1034-19.                                           11000
   84 L1  1            A1025-18.375. 133.1-240.240.       37.  13.         11000
   85 L   1            A 987-18.                                           11000
   86 L   1            A 990-14.                                           11000
   87 L   1            A 990-7.5                                           11000
   88 L   1            A1015-21.                                           11000
   89 L   1            A1031-11.                          44.2 0.          11000
   90 L   1            A1026-11.                          66.  0.          11000
   91 L1  1            A1052-9.3155. 45.53-11. 96.        17.4 0.          11000
   92 L1  1            A1052-6.2290. 31.85-153.153.       15.8 0.          11000
   94 L   1            A 992-9.2                          60.3 0.          11000
   97 L   1            A1018-13.                          39.9 0.          11000
   98 L1  1            A1000-15.68.  -10.2-30. 56.        66.7 0.          11000
   99 L   1            A 989-20.                          83.5 0.          11000
  100 L   1            A1006-14.                                           11000
  102 L   1            A1000-15.                          77.8 0.          11000
  103 L   1            A1029-12.                          32.  0.          11000
  104 L   1            A 996-17.                          8.6  0.          11000
  105 L   1            A1022-13.                          49.6 0.          11000
  107 L   1            A1009-16.                          4.6  0.          11000
  108 L1  1            A 990-20.117. 21.6 -24. 77.        112.10.          11000
  109 L   1            A 975-26.                          30.7 0.          11000
  110 L   1            A 973-25.                          63.  0.          11000
  112 L   1            A 973-29.                          19.6 0.          11000
  113 L   1            A 970-26.                          26.2 0.          11000
  114 L   1            A 975-29.                          18.2 0.          11000
  115 L   2            A 91911.6                                           21000
  116 L   2            A 98118.9                                           21000
  117 L   2            A 90925.1                                    325.   21000
  118 L   2            A 90426.2                          14.1 650.        21000
  119 L1  2            A104441. 1930.1367.-500.1500.                       21000
  120 L   2            A 99837.7                                    55.    21000
  121 L   2            A 84815.                           535. 55.         21000
  122 L   2            A 8969.24                          229.111.8        21000
  123 L   2            A 9214.23                          78.  1.4         21000
  124 L1  2            A 96315.6240. 120. -60. 120.       276.459.3        21000
  125 L1  2            A 945-6.2     200. -25. 200.       514.882.7        21000
  126 L   2            A 943-1.5                          57.9 5.1         21000
  127 L   2            A 976-7.2                          380.837.         21000
  128 L   2            A 990-5.1                                           21000
  129 L   2            A 988-4.3                                           21000
  130 L   2            A10126.38                                           21000
  131 L   2            A 9826.71                                           21000
  132 L   2            A 9974.65                                           21000
  133 L   2            A 991-7.4                                           21000
  134 L   2            A1011-6.4                                           21000
  135 L   2            A1013-6.5                          169.241.6        21000
  136 L   2            A1046-1.1                          55.2 18.2        21000
  137 L   2            A1043-7.4                          273.699.8        21000
  138 L1  2            A1052-17.     350. -125.350.       826.7135.2       21000
  139 L   2            A1010-9.3                          595. 83.3        21000
  140 L   2            A1040-9.2                          387.7114.7       21000
  141 L1  2            A1051-5.5281. 70.01-50. 75.        145. 58.         21000
  142 L   2            A1014-7.5                          56.5 24.5        21000
  143 L1  2            A1044-.17696. 124.8-100.300.       89.5 35.5        21000
  144 L   2            A1017-3.1                                           21000
  145 L   2            A1008-4.8                          24.  14.         21000
  146 L1  2            A1052-.7384.  35.  -15. 35.                         21000
  147 L1  2            A10533.23217. -47.7-50. 100.                        21000
  148 L   2            A1058-4.                           63.  25.         21000
  149 L1  2            A1073.852103. 50.  -25. 50.                         21000
  150 L   2            A 9837.                                             21000
  151 L   2            A 9985.06                                           21000
  152 L1  2            A10546.19372. -48.3-50. 175.       17.  9.          21000
  153 L1  2            A10446.47216. -18.9-50. 90.                         21000
  154 L   2            A 965-6.2                          70.  5.   34.5   21000
  155 L   2            A10141.99                          200. 50.         21000
  156 L1  2            A 960.401     15.  -10. 15.        75.  50.         21000
  157 L   2            A 91211.                           123.5-24.3       21000
  158 L   2            A 92010.5                                           21000
  159 L   2            A 90115.3                          33.  16.5        21000
  160 L   2            A 93513.3                                           21000
  161 L   2            A10354.6                           35.  15.         21000
  162 L   2            A 99013.6                          85.  24.         21000
  163 L   2            A1036-2.6                               .4          21000
  164 L   2            A 9814.69                                    -212.  21000
  165 L   2            A 99921.4                                           21000
  166 L   2            A 99725.3                                    -103.  21000
  167 L   2            A 956-6.8                          299.995.7        21000
  168 L   2            A 990-5.1                                           21000
  169 L   2            A 971-6.7                                           21000
  170 L1  2            A 9221.3 205. 90.  -40. 90.        481.8205.        21000
  171 L1  2            A 972-12.     150. -50. 150.       763.6291.1       21000
  172 L   2            A1024-12.                          26.5 0.          21000
  173 L   2            A 982-18.                          163.543.  53.    21000
  174 L   2            A1062-8.2                                           21000
  175 L   2            A 971-12.                          176. 83.         21000
  176 L1  2            A1052-.11228. 40.9 -45. 90.        5.   4.          21000
  177 L1  2            A1008-4.184.  35.  -15. 35.        28.  12.         21000
  178 L   2            A 939-11.                          427.4173.6       21000
  179 L   2            A 969-14.                          74.  29.  45.    21000
  180 L   2            A 979-7.8                          69.5 49.3        21000
  181 L   2            A1047-7.9                          73.4 0.          21000
  182 L   2            A1042-9.9                          240.789.         21000
  183 L   2            A 9713.06                          40.  4.          21000
  184 L   2            A1034-5.2                          136.816.6        21000
  185 L1  2            A1052-2.7200. 52.25-50. 80.                         21000
  186 L1  2            A1065-4.21200.318.8-100.400.       59.8 24.3        21000
  187 L1  2            A1065-5.21200.396.3-100.400.       59.8 24.3        21000
  188 L   2            A1049-7.3                          182.643.6        21000
  189 L   3            A 998-26.                          7.   2.          31000
  190 L1  3            A1055-21.475. -65.5-300.300.                 -150.  31000
  191 L1  3            A104411.81973.692.1-10001000.      489. 53.         31000
  192 L   3            A 937-12.                          800. 72.         31000
  193 L   3            A 990-26.                                           31000
  194 L   3            A1049-20.                                           31000
  195 L   3            A1036-21.                                           31000
  196 L   3            A 969-26.                          10.  3.          31000
  197 L   3            A 991-24.                          43.  14.         31000
  198 L1  3            A1015-21.424. 101.1-260.260.       64.  21.         31000
  199 L   3            A 953-26.                          35.  12.         31000
  200 L   3            A 955-26.                          27.  12.         31000
  201 L   1            A 969-28.                          41.  14.         11000
  202 L   3            A 991-26.                          38.  13.         31000
  203 L   3            A1003-23.                          42.  14.         31000
  204 L   3            A 972-26.                          72.  24.         31000
  205 L   3            A 984-26.                               -5.         31000
  206 L   3            A 999-28.                          12.  2.          31000
  207 L   1            A1014-28.                          -21. -14.2       11000
  208 L   3            A 993-27.                          7.   2.          31000
  209 L   3            A1000-26.                          38.  13.         31000
  210 L   3            A 979-25.                                           31000
  211 L   3            A1002-24.                          96.  7.          31000
  212 L  A3            A1013-23.                                           31000
  213 L1  3            A1010-12.272. 44.07-150.150.                        31000
  214 L  A3            A 992-18.                          22.  16.         31000
  215 L  A3            A 987-21.                          47.  26.         31000
  216 L  A3            A 975-23.                          176. 105.        31000
  217 L  A3            A1022-23.                          100. 75.         31000
  218 L  A3            A1008-23.                          131. 96.         31000
  219 L   3            A1055-22.                                           31000
  220 L1 A3            A1008-22.100. 35.91-60. 60.        285. 100.        31000
  221 L1 A3            A1000-23.450. 160.4-320.320.       171. 70.         31000
...
99999
DLIN
(De )d O d(Pa )NcEP ( R% )( X% )(Mvar)(Tap)(Tmn)(Tmx)(Phs)(Bc  )(Cn)(Ce)Ns(Cq)(1)(2)(3)(4)(5)(6)(7)(8)(9)(10
    1         5 1   .1    .6                                                  
    2         6 1   .1    .9                                                  
    2         8 1   .6    2.7   5.4                                           
    3         7 1         .3                                                  
    3        19 1   .8    6.9   13.9                                          
    3       150 1 T .1    .7                                                  
    3         1 1         5.2         .947 .9   1.1           -1        99    
    3         2 1         5.2         .956 .9   1.1           -2        99    
    3         4 1         .5          .971 .9   1.1           -4        99    
    4        16 1   .2    1.9   112.7                                         
    5         9 1   .6    2.9   1.8                                           
    7        12 1   .1    .9    7.                                            
    7       131 1 T .1    .7    1.4                                           
    7         5 1         3.9         .948 .9   1.1           -5        99    
    7         6 1         3.9         .959 .9   1.1           -6        99    
    8        11 1   1.3   5.95  3.3                                           
    8        14 1   1.3   4.2   8.1                                           
    9        11 1   .6    2.7   1.3                                           
   10        11 1         8.9         1.046.9   1.1          -11        99    
   11        13 1   .8    3.4   1.8                                           
   12        21 1   .2    1.5   11.8                                          
   12        10 1         5.3         .985 .9   1.1          -10        99    
   13        20 1   .6    3.4   1.6                                           
   14        15 1   1.4   4.2   9.7                                           
   15        37 1   6.5   24.8  12.1                                          
   15        89 1   9.9   24.8  3.5                                           
   15        90 1   9.6   36.3  4.8                                           
   15        17 1   1.94  3.11        .9561.9   1.1          -17        99    
   16        42 1   .2    2.2   128.                                          
   16        15 1   .1    3.8         .971 .9   1.1          -15        99    
   19        21 1   .2    1.8   3.6                                           
   19        87 1   1.3   8.    15.1                                          
   20        22 1   1.6   3.3   1.5                                           
   20        27 1   6.9   18.6  9.8                                           
   21        24 1   .4    3.4   28.                                           
   21        20 1         1.4         .952 .9   1.1          -20        99    
   22        23 1   5.2   11.1  5.                                            
   23        25 1   1.9   3.9   1.8                                           
   24       319 1   .7    6.8   13.4                                          
   24        23 1         6.4         .943 .9   1.1          -23        99    
   25        26 1   3.6   7.1   3.4                                           
   26        27 1   4.5   12.   6.5                                           
   26       320 1   4.3   13.   1.4                                           
   33        34 1         6.3                                                 
   33        38 1   .25   1.2   1.3                                           
   33        40 1   .6    2.9   2.                                            
   33        41 1   .7    4.3   2.6                                           
   34        42 1   .1    .8    4.2                                           
   35        72 1   1.2   6.    .8                                            
   35        76 1   .6    1.4   .2                                            
   35        77 1   1.    2.9   .3                                            
   36        88 1   .4    2.7   4.3                                           
   36        35 1         4.7         1.01 .9   1.1          -35        99    
   37        38 1   .8    4.7   .8                                            
   37        40 1   2.2   6.4   .7                                            
   37        41 1   1.    3.6   2.                                            
   37        49 1   1.7   8.1   4.8                                           
   37        89 1   10.2  25.4  3.3                                           
   37        90 1   4.7   12.7  1.6                                           
   37      9001 1   .006  .046        1.004                                 75
   38        41 1   .8    3.7   2.                                            
   38        43 1   3.2   8.7   4.                                            
   39        42 1   .06   .64   40.4                                          
   40        48 1   2.6   15.4  2.2                                           
   41        42 1         2.9                                                 
   41        49 1   6.5   19.1  2.                                            
   41        51 1   3.1   8.9   3.6                                           
   42        46 1   .2    1.4   80.6                                          
   43        44 1   2.6   7.2   3.5                                           
   43        48 1   9.5   26.2  3.2                                           
   43        53 1   1.3   3.9   1.6                                           
   44        47 1   2.7   8.4   3.9                                           
   44        54 1   2.8   8.4   3.7                                           
   45        60 1   .7    4.1   31.2                                          
   45        74 1   .9    5.4   41.1                                          
   45        44 1         2.          1.008.9   1.1          -44        99    
   45        46 1         2.1         1.   .9   1.1          -46        99    
   46        81 1   .5    4.2   69.                                           
   47        73 1   5.2   14.5  7.3                                           
   47       113 1   4.3   11.8  1.3                                           
   48       107 1   2.5   6.2   .7                                            
   49        51 1   3.1   9.4   4.3                                           
   51        52 1   3.7   10.9  4.9                                           
   52        55 1   2.7   8.    3.6                                           
   53        54 1   2.5   7.3   3.5                                           
   54        55 1   3.5   10.3  4.7                                           
   55        57 1   6.5   16.9  8.2                                           
   57        58 1   4.6   8.    3.6                                           
   57        63 1   15.9  53.7  7.1                                           
   58        59 1   .9    2.6   .5                                            
   59        61 1   .2    1.3   1.5                                           
   60        62 1   .9    6.5   48.5                                          
   62        64 1   1.6   10.5  20.3                                          
   62       144 1 T .1    .7    1.3                                           
   62        61 1         5.9         .975 .9   1.1          -61        99    
   63       526 1   2.65  17.2  2.6                                           
   63        64 1         3.8         1.017.9   1.1          -64        99    
   69        79 1   5.1   15.7  2.3                                           
   69       211 1 T 5.1   23.2  2.8                                           
   70        71 1   3.2   10.   6.2                                           
   70       528 1   2.    12.34 2.8                                           
   71        72 1   3.6   13.1  6.8                                           
   71        73 1   3.4   9.9   4.7                                           
   72        77 1   1.8   8.7   1.1                                           
   72       531 1   2.56  19.3                                                
   73        76 1   2.1   5.7   3.                                            
   73        79 1   1.8   5.2   1.8                                           
   73        74 1         2.44        1.   .9   1.1          -74        99    
   74        88 1   .4    2.7   5.                                            
   74       562 1   2.86  20.13 37.9                                          
   76        77 1   1.6   4.3   .4                                            
   77        78 1   .1    .6    .7                                            
   77        80 1   1.4   7.    3.8                                           
   77       552 1   8.91  26.76 2.9                                           
   77       609 1   7.82  21.27 2.2                                           
   78        79 1   .6    2.2   1.1                                           
   78        84 1         3.6                                                 
   79       211 1 T 9.9   37.5  5.1                                           
   80       211 1 T 2.2   10.7  5.8                                           
   81       194 1 T .35   3.3   53.                                           
   81       195 1 T .35   3.3   53.                                           
   81        88 1         2.          1.   .9   1.1          -88        99    
   85        86 1   .8    6.4   12.8                                          
   85        99 1         4.8         1.   .9   1.1          -99        99    
   86        87 1   1.2   9.3   18.3                                          
   86       323 1   .6    4.8   9.2                                           
   86       102 1         4.8         1.   .9   1.1         -102        99    
   87        94 1         4.6         1.015.9   1.1          -94        99    
   89        91 1   4.7   11.9  1.4                                           
   90        92 1   3.2   17.4  2.4                                           
   91        94 1   10.   25.3  3.1                                           
   91        97 1   2.2   7.7   3.9                                           
   92       103 1   1.9   14.4  1.7                                           
   92       105 1   1.7   9.2   1.2                                           
   94        97 1   27.8  42.7  4.3                                           
   97       100 1   2.2   5.3   .7                                            
   97       102 1   3.8   9.2   1.2                                           
   97       103 1   4.8   12.2  1.5                                           
   98       100 1   2.4   6.4   .7                                            
   98       102 1   3.4   12.1  1.5                                           
   99       107 1   5.3   13.5  1.7                                           
   99       108 1   .2    .4    .2                                            
   99       109 1   4.5   35.4  4.4                                           
   99       110 1   5.    17.4  2.2                                           
  100       102 1   1.6   3.8   .4                                            
  102       104 1   4.3   6.4   2.7                                           
  103       105 1   1.9   6.2   .8                                            
  104       108 1   7.6   13.   4.4                                           
  104       322 1   4.4   12.4  1.5                                           
  105       107 1   1.2   8.8   1.1                                           
  105       110 1   15.7  40.   4.7                                           
  108       324 1   7.4   20.8  2.6                                           
  109       110 1   7.    18.4  2.1                                           
  109       113 1   10.   27.4  3.1                                           
  109       114 1   10.9  39.3  3.6                                           
  110       112 1   14.2  40.4  5.                                            
  112       114 1   1.7   4.2   .6                                            
  114       207 1         14.9        .967 .9   1.1         -207        99    
  115       122 1   .36   1.99  .4                                            
  116       120 1   .2    10.49 .1                                            
  116       124 1 T .52   1.74        1.01 .9   1.1         -124        99    
  117       118 1   .01   .18   1.7                                           
  118       119 1         2.71                                                
  118       121 1   .22   29.15                                               
  118      1201 1         61.63                                               
  119       120 1         3.39                                                
  119       121 1         5.82                                                
  119      1190 1 T .1    2.3                                                 
  120      1200 1 T       2.3                                                 
  120      1201 1         -36.97                                              
  121       115 1 T       2.8         .9   .9   1.1         -115        99    
  122       123 1   8.08  23.44 2.9                                           
  122       125 1   9.65  36.69 5.4                                           
  122       157 1 T .05   1.95        .964 .9   1.1         -157        99    
  123       124 1   3.6   10.76 11.7                                          
  123       125 1   4.76  14.14 14.9                                          
  125       126 1   .06   1.97                                                
  126       127 1   .59   4.05  25.                                           
  126       129 1   1.15  11.06 18.5                                          
  126       132 1   1.98  16.88 32.1                                          
  126       157 1   .5    5.    33.                                           
  126       158 1   .77   5.38  33.5                                          
  126       169 1   1.65  11.57 17.1                                          
  127       128 1   .59   5.77  9.5                                           
  127       134 1   .49   3.36  20.8                                          
  127       168 1   .59   5.77  9.5                                           
  128       130 1   .78   7.73  12.6                                          
  128       133 1   .26   1.93  3.                                            
  129       130 1   .76   7.52  12.2                                          
  129       133 1   .21   1.86  3.                                            
  130       132 1   .16   1.64  2.6                                           
  130       151 1   .17   1.65  2.6                                           
  130       167 1   .79   7.93  12.7                                          
  130       168 1   .78   7.84  12.5                                          
  130       131 1 T       1.8         1.052.9   1.1         -131        99    
  130       150 1 T       1.4         1.052.9   1.1         -150        99    
  132       170 1 T .1    4.02        1.05 .9   1.1         -170        99    
  133       137 1   .17   1.17  28.9                                          
  133       168 1   .26   1.93  3.                                            
  133       169 1   .21   1.86  3.                                            
...
99999
DCSC
(De ) O  (Pa )NcEP       (Xmin)(Xmax)( Xv )C ( Vsp) (Ext)Nst(1)(2)(3)(4)(5)(6)
99999
DCAI
(Num) O  Gr E (U) UOp ( P ) ( Q ) (A) (B) (C) (D) (Vfl) (Vf)
99999
DGEI
(Num) OA Gr E(U)UOpUOn( Pg)( Qg)( Qn)( Qm)(Xtrf) ( Xd)( Xq)( Xl) (fp)( Sn)(Ptu)
99999
DBSH
99999
DSHL
(De ) O  (Pa )Nc (Shde)(Shpa) ED EP
  142      175 1       -8.7       L
  163      137 1       -5.7       L
  164      155 1       -3.3       L
  204     2040 1       -1.2       L
  218      219 1       -1.        L
  222      237 1       -33.       L
  223      224 1       -36.4      L
  227      231 1       -18.6      L
99999
DGER
99999
DCAR
(tp) (no ) C (tp) (no ) C (tp) (no ) C (tp) (no ) O (A) (B) (C) (D) (Vfl)
99999
DCER
(No ) O Gr Un (Kb ) (Incl) ( Qg)( Qn)( Qm) C E
99999
DCTR
(Nf ) O (Nt ) Nc Vmin Vmax C M (Fmin) (Fmax) C ( Vsp) (Ext) Ns
  196    2040  1               -15.   1.1    P -82.5   2040  1
99999
DGLT
(G (Vmn) (Vmx) (Vmne (Vmxe
 A .9    1.1   .9    1.1  
99999
DARE
(Ar    (Xchg)     (      Identificacao da area       ) (Xmin) (Xmax)
  1    100.       0
  2    -40.       0
  3    -60.       0
99999
DTPF CIRC
(De ) (Pa ) Nc (De ) (Pa ) Nc (De ) (Pa ) Nc (De ) (Pa ) Nc (De ) (Pa ) Nc O
99999
DMTE
(tp) (no ) C (tp) (no ) C (tp) (no ) C (tp) (no ) O F
99999
DMFL CIRC
(De ) (Pa ) Nc (De ) (Pa ) Nc (De ) (Pa ) Nc (De ) (Pa ) Nc (De ) (Pa ) Nc O
99999
DELO
(No) O ( V ) ( P ) (   Identificacao  ) M E
   1   500.  0.    1                    N L
99999
DCBA
(No) O TP(   Nome   )Gl( Vd)                                      ( Rs)(Elo
  10   0+Rtf   1       460.                                               1
  20   1+Inv   1       460.                                               1
  30   00NRf   1       0.                                                 1
  40   00NIv   1       0.                                                 1
99999
DCLI
(De) O  (Pa)Nc P (  R )( L  )                               (Cn)
  10      20     6.2                                        9999
99999
DCNV
(No) O (CA ) (CC) (EL) T p (Ino) (Xc ) (Vfs) (Snt) (Rra) (Lra) (CCC) Fr
   1     119   10   30 R 4 869.6 9.195 86.   100.                    60
   2     120   20   40 I 4 869.6 9.195 86.   100.                    60
99999
DCCV
(No) O FMC (Vsp) (Marg (IMax (Dsp) (Dtn) (Dtm) (Tmn) (Tmx) (S (Vmn (Tmh) (Ttr)
   1   F P 100.  0.          20.   15.   180.  .7    1.4      2.61            
   2   N P 100.  10.         18.   20.   180.  .7    1.4      2.61            
99999
DGBT
(G ( kV)
 A 138. 
99999
DINJ
99999
FIM 
